*HEADING
~~
*NODE
~~
*NSET, NSET="bottle_basering"
~~
*NSET, NSET="Geometric Group.bottle_all"
~~
*ELEMENT, TYPE=S3R
~~
*ELEMENT, TYPE=S4
~~
*ELSET, ELSET="Spatial Groupbody-1"
~~
*ELSET, ELSET="Spatial Groupneck-1"
~~
*DISTRIBUTION TABLE, NAME="Spatial Groupbody-1"
LENGTH
*DISTRIBUTION, LOCATION=ELEMENT, NAME="Spatial Groupbody-1", TABLE="Spatial Groupbody-1"
~~
*SURFACE, NAME="Pressurebulge_bottle", TYPE=ELEMENT
~~
*MATERIAL, NAME="PET_Mod_4500_elastic"
*ELASTIC, TYPE=ISOTROPIC, DEPENDENCIES=1
4500., 0.41
*DENSITY
1.33e-09
*SHELL SECTION, MATERIAL="PET_Mod_4500_elastic", ELSET="Spatial Groupneck-1", TEMPERATURE=5, OFFSET=0.
2., 5
*SHELL SECTION, MATERIAL="PET_Mod_4500_elastic", ELSET="Spatial Groupbody-1", SHELL THICKNESS="Spatial Groupbody-1", TEMPERATURE=5, OFFSET=0.
1., 5
*INITIAL CONDITIONS, TYPE=FIELD, VARIABLE=1
~~
*STEP, NAME="Static StepBulge", AMPLITUDE=RAMP, INC=1000, NLGEOM=YES
*STATIC
1., 1., 1e-05, 1.
*BOUNDARY, OP=NEW
"bottle_basering", ENCASTRE
*DSLOAD, OP=NEW
"Pressurebulge_bottle", HP, 0.0019, -14.5, -217.9
** Output request Output1
*OUTPUT, FIELD, FREQUENCY=1
*ELEMENT OUTPUT
S
** Output request Output1-2
*OUTPUT, FIELD, FREQUENCY=1
*ELEMENT OUTPUT
E
** Output request Output1-3
*OUTPUT, FIELD, FREQUENCY=1
*ELEMENT OUTPUT
PE
** Output request Output1-4
*OUTPUT, FIELD, FREQUENCY=1
*ELEMENT OUTPUT
PEEQ
** Output request Output1-5
*OUTPUT, FIELD, FREQUENCY=1
*NODE OUTPUT
U
** Output request Output1-6
*OUTPUT, FIELD, FREQUENCY=1
*NODE OUTPUT
RF
** Output request Output1-7
*OUTPUT, FIELD, FREQUENCY=1
*NODE OUTPUT
CF
** Output request Output1-8
*OUTPUT, FIELD, FREQUENCY=1
*ELEMENT OUTPUT
STH
** Output request Output1-9
*OUTPUT, FIELD, FREQUENCY=1
*NODE OUTPUT
COORD
** Output request Output1-10
*OUTPUT, FIELD, FREQUENCY=1
*ELEMENT OUTPUT
EVOL
** Output request Output1-11
*OUTPUT, FIELD, NUMBER INTERVAL=20
*ELEMENT OUTPUT
FV
** Output request Output2
*OUTPUT, HISTORY, FREQUENCY=1
*ENERGY OUTPUT
ALLAE
** Output request Output2-2
*OUTPUT, HISTORY, FREQUENCY=1
*ENERGY OUTPUT
ALLCD
** Output request Output2-3
*OUTPUT, HISTORY, FREQUENCY=1
*ENERGY OUTPUT
ALLDMD
** Output request Output2-4
*OUTPUT, HISTORY, FREQUENCY=1
*ENERGY OUTPUT
ALLEE
** Output request Output2-5
*OUTPUT, HISTORY, FREQUENCY=1
*ENERGY OUTPUT
ALLFD
** Output request Output2-6
*OUTPUT, HISTORY, FREQUENCY=1
*ENERGY OUTPUT
ALLIE
** Output request Output2-7
*OUTPUT, HISTORY, FREQUENCY=1
*ENERGY OUTPUT
ALLJD
** Output request Output2-8
*OUTPUT, HISTORY, FREQUENCY=1
*ENERGY OUTPUT
ALLKE
** Output request Output2-9
*OUTPUT, HISTORY, FREQUENCY=1
*ENERGY OUTPUT
ALLKL
** Output request Output2-10
*OUTPUT, HISTORY, FREQUENCY=1
*ENERGY OUTPUT
ALLPD
** Output request Output2-11
*OUTPUT, HISTORY, FREQUENCY=1
*ENERGY OUTPUT
ALLQB
** Output request Output2-12
*OUTPUT, HISTORY, FREQUENCY=1
*ENERGY OUTPUT
ALLSE
** Output request Output2-13
*OUTPUT, HISTORY, FREQUENCY=1
*ENERGY OUTPUT
ALLSD
** Output request Output2-14
*OUTPUT, HISTORY, FREQUENCY=1
*ENERGY OUTPUT
ALLVD
** Output request Output2-15
*OUTPUT, HISTORY, FREQUENCY=1
*ENERGY OUTPUT
ALLWK
** Output request Output2-16
*OUTPUT, HISTORY, FREQUENCY=1
*ENERGY OUTPUT
ALLCCDW
** Output request Output2-17
*OUTPUT, HISTORY, FREQUENCY=1
*ENERGY OUTPUT
ALLCCEN
** Output request Output2-18
*OUTPUT, HISTORY, FREQUENCY=1
*ENERGY OUTPUT
ALLCCET
** Output request Output2-19
*OUTPUT, HISTORY, FREQUENCY=1
*ENERGY OUTPUT
ALLCCE
** Output request Output2-20
*OUTPUT, HISTORY, FREQUENCY=1
*ENERGY OUTPUT
ALLCCSDN
** Output request Output2-21
*OUTPUT, HISTORY, FREQUENCY=1
*ENERGY OUTPUT
ALLCCSDT
** Output request Output2-22
*OUTPUT, HISTORY, FREQUENCY=1
*ENERGY OUTPUT
ALLCCSD
** Output request Output2-23
*OUTPUT, HISTORY, FREQUENCY=1
*ENERGY OUTPUT
ETOTAL
*END STEP
