*HEADING
~~
*NODE
~~
*NSET, NSET="ReferenceNode Translationtop_plate"
~~
*NSET, NSET="ReferenceNode ground_plate"
~~
*NSET, NSET="ReferenceNode top_plate"
~~
*NSET, NSET="Geometric Group.bottle_all"
~~
*NSET, NSET="Rigid Bodyground_plate-3-1"
~~
*NSET, NSET="Rigid Bodytop_plate-3-1"
~~
*ELEMENT, TYPE=S3R
~~
*ELEMENT, TYPE=S4
~~
*ELSET, ELSET="Rigid Bodyground_plate-2-1"
~~
*ELSET, ELSET="Rigid Bodytop_plate-2-1"
~~
*ELSET, ELSET="Shell Sectionground_plate-1"
~~
*ELSET, ELSET="Shell Sectiontop_plate-1"
~~
*ELSET, ELSET="Spatial Groupbody-1"
~~
*ELSET, ELSET="Spatial Groupneck-1"
~~
*DISTRIBUTION TABLE, NAME="Spatial Groupbody-1"
LENGTH
*DISTRIBUTION, LOCATION=ELEMENT, NAME="Spatial Groupbody-1", TABLE="Spatial Groupbody-1"
~~
*SURFACE, NAME="Bottle Pair1", TYPE=ELEMENT
~~
*SURFACE, NAME="Top_plate Pair1-2", TYPE=ELEMENT
~~
*SURFACE, NAME="Bottle Pair2", TYPE=ELEMENT
~~
*SURFACE, NAME="Ground_plate Pair2-2", TYPE=ELEMENT
~~
*RIGID BODY, REF NODE=~~, ISOTHERMAL=NO, POSITION=INPUT, ELSET="Rigid Bodytop_plate-2-1", TIE NSET="Rigid Bodytop_plate-3-1"
*RIGID BODY, REF NODE=~~, ISOTHERMAL=NO, POSITION=INPUT, ELSET="Rigid Bodyground_plate-2-1", TIE NSET="Rigid Bodyground_plate-3-1"
*AMPLITUDE, NAME="Tabular Amplitudetop_load", SMOOTH=0.25, DEFINITION=TABULAR
0., 0., 1., 0.55, 5., 2.75, 10., 5.5
60., 33.
*PHYSICAL CONSTANTS, ABSOLUTE ZERO=0.
*MATERIAL, NAME="1023 Carbon Steel Sheet"
*ELASTIC, TYPE=ISOTROPIC
205000., 0.29
*PLASTIC, HARDENING=JOHNSON COOK
115.3434726939, 542.37883490295, 0.188146894, 0., 0., 0.
*DENSITY
7.858e-09
*EXPANSION, TYPE=ISOTROPIC, ZERO=0.
1.2e-05
*CONDUCTIVITY, TYPE=ISOTROPIC
52.
*SPECIFIC HEAT
486000000.
*MATERIAL, NAME="PET_Mod_4500_elastic"
*ELASTIC, TYPE=ISOTROPIC, DEPENDENCIES=1
4500., 0.41
*DENSITY
1.33e-09
*SHELL SECTION, MATERIAL="1023 Carbon Steel Sheet", ELSET="Rigid Bodytop_plate-2-1", TEMPERATURE=5, OFFSET=0.
1., 5
*SHELL SECTION, MATERIAL="1023 Carbon Steel Sheet", ELSET="Rigid Bodyground_plate-2-1", TEMPERATURE=5, OFFSET=0.
1., 5
*SHELL SECTION, MATERIAL="PET_Mod_4500_elastic", ELSET="Spatial Groupneck-1", TEMPERATURE=5, OFFSET=0.
2., 5
*SHELL SECTION, MATERIAL="PET_Mod_4500_elastic", ELSET="Spatial Groupbody-1", SHELL THICKNESS="Spatial Groupbody-1", TEMPERATURE=5, OFFSET=0.
1., 5
*SURFACE INTERACTION, NAME="Contact Propertytop_load"

*SURFACE BEHAVIOR, PRESSURE-OVERCLOSURE=HARD
*FRICTION, ROUGH
*INITIAL CONDITIONS, TYPE=FIELD, VARIABLE=1
~~ define nodal modulus
*STEP, NAME="Explicit Dynamic Steptop_load", NLGEOM=YES
*DYNAMIC, EXPLICIT, ELEMENT BY ELEMENT, SCALE FACTOR=1.
 , 10.
*CONTACT, OP=NEW
*CONTACT INCLUSIONS
"Bottle Pair1", "Top_plate Pair1-2"
"Bottle Pair2", "Ground_plate Pair2-2"
*CONTACT PROPERTY ASSIGNMENT
, , "Contact Propertytop_load"
*BOUNDARY, OP=NEW
"ReferenceNode ground_plate", ENCASTRE
*BOUNDARY, OP=NEW
"ReferenceNode top_plate", 1, 1, 0.
*BOUNDARY, OP=NEW
"ReferenceNode top_plate", 2, 2, 0.
*BOUNDARY, OP=NEW
"ReferenceNode top_plate", 4, 4, 0.
*BOUNDARY, OP=NEW
"ReferenceNode top_plate", 5, 5, 0.
*BOUNDARY, OP=NEW
"ReferenceNode top_plate", 6, 6, 0.
*BOUNDARY, AMPLITUDE="Tabular Amplitudetop_load", OP=NEW
"ReferenceNode Translationtop_plate", 3, 3, -1.
*FIXED MASS SCALING, FACTOR=1., DT=1e-05, TYPE=BELOW MIN
** Output request Output1
*OUTPUT, FIELD, NUMBER INTERVAL=20
*ELEMENT OUTPUT
S
** Output request Output1-2
*OUTPUT, FIELD, NUMBER INTERVAL=20
*ELEMENT OUTPUT
PE
** Output request Output1-3
*OUTPUT, FIELD, NUMBER INTERVAL=20
*ELEMENT OUTPUT
PEEQ
** Output request Output1-4
*OUTPUT, FIELD, NUMBER INTERVAL=20
*ELEMENT OUTPUT
LE
** Output request Output1-5
*OUTPUT, FIELD, NUMBER INTERVAL=20
*NODE OUTPUT
U
** Output request Output1-6
*OUTPUT, FIELD, NUMBER INTERVAL=20
*NODE OUTPUT
V
** Output request Output1-7
*OUTPUT, FIELD, NUMBER INTERVAL=20
*NODE OUTPUT
A
** Output request Output1-8
*OUTPUT, FIELD, NUMBER INTERVAL=20
*NODE OUTPUT
RF
** Output request Output1-9
*OUTPUT, FIELD, NUMBER INTERVAL=20
*CONTACT OUTPUT
CSTRESS
** Output request Output1-10
*OUTPUT, FIELD, NUMBER INTERVAL=20
*ELEMENT OUTPUT
STH
** Output request Output1-11
*OUTPUT, FIELD, NUMBER INTERVAL=20
*NODE OUTPUT
COORD
** Output request Output1-12
*OUTPUT, FIELD, NUMBER INTERVAL=20
*ELEMENT OUTPUT
EVOL
** Output request Output1-13
*OUTPUT, FIELD, NUMBER INTERVAL=20
*ELEMENT OUTPUT
SMOOTHLEN
** Output request Output1-14
*OUTPUT, FIELD, NUMBER INTERVAL=20
*ELEMENT OUTPUT
SDV
** Output request Output1-15
*OUTPUT, FIELD, NUMBER INTERVAL=20
*ELEMENT OUTPUT
FV
** Output request Output2
*OUTPUT, HISTORY, FREQUENCY=200
*ENERGY OUTPUT
ALLAE
** Output request Output2-2
*OUTPUT, HISTORY, FREQUENCY=200
*ENERGY OUTPUT
ALLCD
** Output request Output2-3
*OUTPUT, HISTORY, FREQUENCY=200
*ENERGY OUTPUT
ALLDMD
** Output request Output2-4
*OUTPUT, HISTORY, FREQUENCY=200
*ENERGY OUTPUT
ALLFD
** Output request Output2-5
*OUTPUT, HISTORY, FREQUENCY=200
*ENERGY OUTPUT
ALLIE
** Output request Output2-6
*OUTPUT, HISTORY, FREQUENCY=200
*ENERGY OUTPUT
ALLKE
** Output request Output2-7
*OUTPUT, HISTORY, FREQUENCY=200
*ENERGY OUTPUT
ALLPD
** Output request Output2-8
*OUTPUT, HISTORY, FREQUENCY=200
*ENERGY OUTPUT
ALLSE
** Output request Output2-9
*OUTPUT, HISTORY, FREQUENCY=200
*ENERGY OUTPUT
ALLVD
** Output request Output2-10
*OUTPUT, HISTORY, FREQUENCY=200
*ENERGY OUTPUT
ALLWK
** Output request Output2-11
*OUTPUT, HISTORY, FREQUENCY=200
*ENERGY OUTPUT
ETOTAL
*RESTART, WRITE, NUMBER INTERVAL= 1, TIME MARKS=NO
*END STEP
